STAAD SPACE
START JOB INFORMATION
ENGINEER DATE 15-Dec-07
END JOB INFORMATION
INPUT WIDTH 79
***********************************************
*         STAAD.Pro Generated Comment         *
***********************************************
* 4 4.94 0 0 10 34.58 0 0
*REPEAT ALL 1 0 0 -0.8
*REPEAT 1 0 0 -2.2
*REPEAT 1 0 0 -1.1
*REPEAT 1 0 0 -1.1
*REPEAT 1 0 0 -2.2
*REPEAT 1 0 0 -1.1
*REPEAT 1 0 0 -1.1
*REPEAT 1 0 0 -2.2
*REPEAT 1 0 0 -1.1
*REPEAT 1 0 0 -1.1
*REPEAT 1 0 0 -2.2
*REPEAT 1 0 0 -0.8
***********************************************
UNIT METER KN
JOINT COORDINATES
1 0 0 0; 2 0.54 0 0; 3 1.74 0 0; 4 4.94 0 0; 5 9.88 0 0; 6 14.82 0 0;
7 19.76 0 0; 8 24.7 0 0; 9 29.64 0 0; 10 34.58 0 0; 11 37.78 0 0; 12 38.98 0 0;
13 39.52 0 0; 14 0 0 -0.8; 15 0.54 0 -0.8; 16 1.74 0 -0.8; 17 4.94 0 -0.8;
18 9.88 0 -0.8; 19 14.82 0 -0.8; 20 19.76 0 -0.8; 21 24.7 0 -0.8;
22 29.64 0 -0.8; 23 34.58 0 -0.8; 24 37.78 0 -0.8; 25 38.98 0 -0.8;
26 39.52 0 -0.8; 27 0 0 -3; 28 0.54 0 -3; 29 1.74 0 -3; 30 4.94 0 -3;
31 9.88 0 -3; 32 14.82 0 -3; 33 19.76 0 -3; 34 24.7 0 -3; 35 29.64 0 -3;
36 34.58 0 -3; 37 37.78 0 -3; 38 38.98 0 -3; 39 39.52 0 -3; 40 0 0 -4.1;
41 0.54 0 -4.1; 42 1.74 0 -4.1; 43 4.94 0 -4.1; 44 9.88 0 -4.1;
45 14.82 0 -4.1; 46 19.76 0 -4.1; 47 24.7 0 -4.1; 48 29.64 0 -4.1;
49 34.58 0 -4.1; 50 37.78 0 -4.1; 51 38.98 0 -4.1; 52 39.52 0 -4.1;
53 0 0 -5.2; 54 0.54 0 -5.2; 55 1.74 0 -5.2; 56 4.94 0 -5.2; 57 9.88 0 -5.2;
58 14.82 0 -5.2; 59 19.76 0 -5.2; 60 24.7 0 -5.2; 61 29.64 0 -5.2;
62 34.58 0 -5.2; 63 37.78 0 -5.2; 64 38.98 0 -5.2; 65 39.52 0 -5.2;
66 0 0 -7.4; 67 0.54 0 -7.4; 68 1.74 0 -7.4; 69 4.94 0 -7.4; 70 9.88 0 -7.4;
71 14.82 0 -7.4; 72 19.76 0 -7.4; 73 24.7 0 -7.4; 74 29.64 0 -7.4;
75 34.58 0 -7.4; 76 37.78 0 -7.4; 77 38.98 0 -7.4; 78 39.52 0 -7.4;
79 0 0 -8.5; 80 0.54 0 -8.5; 81 1.74 0 -8.5; 82 4.94 0 -8.5; 83 9.88 0 -8.5;
84 14.82 0 -8.5; 85 19.76 0 -8.5; 86 24.7 0 -8.5; 87 29.64 0 -8.5;
88 34.58 0 -8.5; 89 37.78 0 -8.5; 90 38.98 0 -8.5; 91 39.52 0 -8.5;
# ... 19 like lines cut
***********************************************
*         STAAD.Pro Generated Comment         *
***********************************************
*1 1 2 12
*13 14 15 24
*25 27 28 36
*37 40 41 48
*49 53 54 60
*61 66 67 72
*73 79 80 84
*85 92 93 96
*97 105 106 108
*109 118 119 120
*121 131 132 132
*133 144 145 144
*145 157 158 156
*157 1 14 168 1 13
*169 2 15 180 1 13
*181 3 16 192 1 13
*193 4 17 204 1 13
*205 5 18 216 1 13
*217 6 19 228 1 13
*229 7 20 240 1 13
# ... 6 like lines cut
************************************************
MEMBER INCIDENCES
1 1 2; 2 2 3; 3 3 4; 4 4 5; 5 5 6; 6 6 7; 7 7 8; 8 8 9; 9 9 10; 10 10 11;
11 11 12; 12 12 13; 13 14 15; 14 15 16; 15 16 17; 16 17 18; 17 18 19; 18 19 20;
19 20 21; 20 21 22; 21 22 23; 22 23 24; 23 24 25; 24 25 26; 25 27 28; 26 28 29;
27 29 30; 28 30 31; 29 31 32; 30 32 33; 31 33 34; 32 34 35; 33 35 36; 34 36 37;
35 37 38; 36 38 39; 37 40 41; 38 41 42; 39 42 43; 40 43 44; 41 44 45; 42 45 46;
43 46 47; 44 47 48; 45 48 49; 46 49 50; 47 50 51; 48 51 52; 49 53 54; 50 54 55;
51 55 56; 52 56 57; 53 57 58; 54 58 59; 55 59 60; 56 60 61; 57 61 62; 58 62 63;
59 63 64; 60 64 65; 61 66 67; 62 67 68; 63 68 69; 64 69 70; 65 70 71; 66 71 72;
67 72 73; 68 73 74; 69 74 75; 70 75 76; 71 76 77; 72 77 78; 73 79 80; 74 80 81;
75 81 82; 76 82 83; 77 83 84; 78 84 85; 79 85 86; 80 86 87; 81 87 88; 82 88 89;
83 89 90; 84 90 91; 85 92 93; 86 93 94; 87 94 95; 88 95 96; 89 96 97; 90 97 98;
91 98 99; 92 99 100; 93 100 101; 94 101 102; 95 102 103; 96 103 104;
97 105 106; 98 106 107; 99 107 108; 100 108 109; 101 109 110; 102 110 111;
103 111 112; 104 112 113; 105 113 114; 106 114 115; 107 115 116; 108 116 117;
109 118 119; 110 119 120; 111 120 121; 112 121 122; 113 122 123; 114 123 124;
115 124 125; 116 125 126; 117 126 127; 118 127 128; 119 128 129; 120 129 130;
121 131 132; 122 132 133; 123 133 134; 124 134 135; 125 135 136; 126 136 137;
127 137 138; 128 138 139; 129 139 140; 130 140 141; 131 141 142; 132 142 143;
133 144 145; 134 145 146; 135 146 147; 136 147 148; 137 148 149; 138 149 150;
139 150 151; 140 151 152; 141 152 153; 142 153 154; 143 154 155; 144 155 156;
# ... 28 like lines cut
MEMBER PROPERTY INDIAN
*end memebers
1 TO 12 145 TO 156 PRIS AX 0.001 IX 0.0001 IY 0.0001 IZ 0.0001
*end members outer girders
13 14 23 24 133 134 143 144 PRIS AX 2.09 IX 0.216 IY 1e-005 IZ 1.23
*end memebers inner girders
25 26 35 36 49 50 59 TO 62 71 72 85 86 PRIS AX 1.95 IX 0.213 IY 1e-005 IZ 1.11
95 TO 98 107 108 121 122 131 132 PRIS AX 1.95 IX 0.213 IY 1e-005 IZ 1.11
*taper memebers outer girders
15 22 135 142 PRIS AX 1.81 IX 0.13 IY 1e-005 IZ 1.145
*taper members inner girders
27 34 51 58 63 70 87 94 99 106 123 -
130 PRIS AX 1.672 IX 0.127 IY 0.0001 IZ 1.037
*middle memebers - end girders
16 TO 21 136 TO 141 PRIS AX 1.53 IX 0.0436 IY 1e-005 IZ 1.06
*middle memebers - inner girders
28 TO 33 52 TO 57 64 TO 69 PRIS AX 1.393 IX 0.041 IY 1e-005 IZ 0.964
88 TO 93 100 TO 105 124 TO 129 PRIS AX 1.393 IX 0.041 IY 1e-005 IZ 0.964
*memebers at bearing location
37 TO 48 73 TO 84 109 TO 119 -
120 PRIS AX 2.75e-005 IX 0.00286 IY 1e-005 IZ 1.43e-005
*end cross girders
170 TO 179 290 TO 299 PRIS AX 1.76 IX 0.3136 IY 1e-005 IZ 1.5
*mid cross girders
230 TO 239 PRIS AX 0.66 IX 0.023 IY 1e-005 IZ 0.58
*deck members near end cross girder
182 TO 191 278 TO 287 PRIS AX 0.435 IX 0.00045 IY 1e-005 IZ 0.0023
*deck members near mid cross girder
218 TO 227 242 TO 251 PRIS AX 0.935 IX 0.0097 IY 1e-005 IZ 0.0049
*deck memebers
193 TO 216 253 TO 276 PRIS AX 1.235 IX 0.0129 IY 1e-005 IZ 0.0064
*deck end memebers - along width
157 TO 168 301 TO 312 PRIS AX 0.0001 IX 1e-005 IY 1e-005 IZ 1e-005
*deck end memebers - along span
181 192 217 228 229 PRIS AX 1.235 IX 0.0129 IY 1e-005 IZ 0.0064
240 241 252 277 288 PRIS AX 1.235 IX 0.0129 IY 1e-005 IZ 0.0064
*deck corner memebers
169 180 289 300 PRIS AX 0.62 IX 0.0064 IY 1e-005 IZ 0.0032
DEFINE MATERIAL START
ISOTROPIC MATERIAL1
E 2.5e+007
POISSON 0.17
DENSITY 25
END DEFINE MATERIAL
CONSTANTS
MATERIAL MATERIAL1 ALL
SUPPORTS
41 80 119 PINNED
51 90 129 FIXED BUT FX
DEFINE MOVING LOAD
*CLASS A four LANES
TYPE 1 LOAD 13.5 13.5 57 57 34 34 34 34
DIST 1.1 3.2 1.2 4.3 3 3 3
TYPE 2 LOAD 13.5 13.5 57 57 34 34 34 34
DIST 1.1 3.2 1.2 4.3 3 3 3
TYPE 3 LOAD 40 60 60 85 85 85 85
DIST 1.1 3.2 1.2 4.3 3 3
TYPE 4 LOAD 40 60 60 85 85 85 85
DIST 1.1 3.2 1.2 4.3 3 3
LOAD 1
MEMBER LOAD
*end members outer girders
13 14 23 24 133 134 143 144 UNI GY -52.25
*end memebers inner girders
25 26 35 36 49 50 59 TO 62 71 72 85 86 UNI GY -48.75
95 TO 98 107 108 121 122 131 132 UNI GY -48.75
*taper memebers outer girders
15 22 95 TO 98 135 142 UNI GY -45.25
*taper members inner girders
27 34 51 58 63 70 87 94 99 106 123 130 UNI GY -41.8
*middle memebers - end girders
16 TO 21 136 TO 141 UNI GY -38.25
*middle memebers - inner girders
28 TO 33 52 TO 57 64 TO 69 UNI GY -34.825
88 TO 93 100 TO 105 124 TO 129 UNI GY -34.825
*memebers at bearing location
37 TO 48 73 TO 84 109 TO 120 UNI GY -6.875
*end cross girders
170 TO 179 290 TO 299 UNI GY -44
*mid cross girders
230 TO 239 UNI GY -16.5
LOAD 2
MEMBER LOAD
*crash barrier
1 TO 12 145 TO 156 UNI GY -9.4
*Wearing course
13 TO 24 UNI GY -1.65 0.5
133 TO 144 UNI GY -1.65 0.3
25 TO 132 UNI GY -1.65
*median .3*25 = 7.5
*** 7.5-1.65 = 5.85)
73 TO 84 UNI GY -5.85
LOAD GENERATION 60
*a ECCENTRIC (near FP)
TYPE 1 -18.8 0 -0.9 XINC 1
TYPE 2 -18.8 0 -2.7 XINC 1
TYPE 1 -18.8 0 -4.4 XINC 1
TYPE 2 -18.8 0 -6.2 XINC 1
TYPE 1 -18.8 0 -9.4 XINC 1
TYPE 2 -18.8 0 -11.2 XINC 1
TYPE 1 -18.8 0 -12.9 XINC 1
TYPE 2 -18.8 0 -14.7 XINC 1
*b ECCENTRIC (near median FP)
TYPE 1 -18.8 0 -7.6 XINC 1
TYPE 2 -18.8 0 -5.8 XINC 1
TYPE 1 -18.8 0 -4.1 XINC 1
TYPE 2 -18.8 0 -2.3 XINC 1
TYPE 1 -18.8 0 -9.4 XINC 1
TYPE 2 -18.8 0 -11.2 XINC 1
TYPE 1 -18.8 0 -12.9 XINC 1
TYPE 2 -18.8 0 -14.7 XINC 1
*C ECCENTRIC TWO LANE (near fp)
TYPE 1 -18.8 0 -0.9 XINC 1
TYPE 2 -18.8 0 -2.7 XINC 1
TYPE 1 -18.8 0 -4.4 XINC 1
TYPE 2 -18.8 0 -6.2 XINC 1
*D ECCENTRIC TWO LANE(near median)
TYPE 1 -18.8 0 -7.6 XINC 1
TYPE 2 -18.8 0 -5.8 XINC 1
TYPE 1 -18.8 0 -4.1 XINC 1
TYPE 2 -18.8 0 -2.3 XINC 1
*CLASS 70R WHEELED
*DEFINE MOVING LOAD
*TYPE 3 LOAD 40 60 60 85 85 85 85 DISTANCE 3.96 1.52 2.13 1.37 3.05 1.37
*TYPE 4 LOAD 40 60 60 85 85 85 85 DISTANCE 3.96 1.52 2.13 1.37 3.05 1.37
LOAD GENERATION 55
*E 70R WHEELED + CLASS A (70R E1) (70R near FP)
TYPE 3 -13.4 0 -2.13 XINC 1
TYPE 4 -13.4 0 -4.06 XINC 1
TYPE 1 -18.8 0 -9.4 XINC 1
TYPE 2 -18.8 0 -11.2 XINC 1
TYPE 1 -18.8 0 -12.9 XINC 1
TYPE 2 -18.8 0 -14.7 XINC 1
*F CLASS A + 70 R (70RE2) (70R near median)
TYPE 3 -13.4 0 -6.87 XINC 1
TYPE 4 -13.4 0 -4.94 XINC 1
TYPE 1 -18.8 0 -9.4 XINC 1
TYPE 2 -18.8 0 -11.2 XINC 1
TYPE 1 -18.8 0 -12.9 XINC 1
TYPE 2 -18.8 0 -14.7 XINC 1
*G 70R WHEELED (on both 2 lanes near FP)
TYPE 3 -13.4 0 -2.13 XINC 1
TYPE 4 -13.4 0 -4.06 XINC 1
TYPE 3 -13.4 0 -10.63 XINC 1
TYPE 4 -13.4 0 -12.56 XINC 1
*H 70R WHEELED (on both 2 lanes near FP)
TYPE 3 -13.4 0 -6.87 XINC 1
TYPE 4 -13.4 0 -4.94 XINC 1
TYPE 3 -13.4 0 -10.63 XINC 1
TYPE 4 -13.4 0 -12.56 XINC 1
PERFORM ANALYSIS
PRINT MAXFORCE ENVELOPE
PRINT SUPPORT REACTION
FINISH
