STAAD PLANE TRANSVERSE ANALYSIS OF DECK
*PAGE 9 OF THE ADB PROJECT REPORT
START JOB INFORMATION
ENGINEER DATE 20-Feb-22
END JOB INFORMATION
*TRANSVERSE ANALYSIS OF DECK
PAGE LENGTH 100
UNIT METER KN
JOINT COORDINATES
1 0 0 0; 2 0.8 0 0; 3 3 0 0; 4 5.2 0 0; 5 7.4 0 0; 6 8.5 0 0;
***********************************************
*         STAAD.Pro Generated Comment         *
***********************************************
*1 1 2 5
************************************************
MEMBER INCIDENCES
1 1 2; 2 2 3; 3 3 4; 4 4 5; 5 5 6;
MEMBER PROPERTY AMERICAN
1 TO 5 PRIS YD 0.25 ZD 1
DEFINE MATERIAL START
ISOTROPIC MATERIAL1
E 2.5e+007
POISSON 0.17
END DEFINE MATERIAL
CONSTANTS
MATERIAL MATERIAL1 ALL
SUPPORTS
2 TO 5 PINNED
LOAD 1 DL
MEMBER LOAD
1 TO 5 UNI GY -6.25
LOAD 2 SIDL
*CRASH BARRIER
MEMBER LOAD
1 UNI GY -6.25 0 0.5
5 UNI GY -6.25 0.6
*WEARING COAT
MEMBER LOAD
1 UNI GY -1.43 0.5
5 UNI GY -1.43 0 0.6
2 TO 4 UNI GY -1.43
LOAD 3 LIVELOAD (CLASS A SINGLE LANE)
MEMBER LOAD
1 UNI GY -122.62 0.585
2 UNI GY -122.62 0 0.415
2 UNI GY -73.11 1.395
3 UNI GY -73.11 0 0.2025
LOAD 4 LIVELOAD (CLASS A DOUBLE LANE)
MEMBER LOAD
1 UNI GY -122.62 0.585
2 UNI GY -122.62 0 0.415
2 UNI GY -73.11 1.395
3 UNI GY -73.11 0 0.2025
3 UNI GY -45.21 0.55 2.055
4 UNI GY -45.21 0 0.05
4 UNI GY -42.84 0.5 1.5
LOAD 5 LIVELOAD (CLASS 70 R MAX. SPAN MOMENT)
MEMBER LOAD
2 UNI GY -64.18 0.805 2.155
3 UNI GY -58.69 0.575 1.845
LOAD 6 LIVELOAD (CLASS 70 R MAX. SUPPORT MOMENT)
MEMBER LOAD
3 UNI GY -58.92 0.61 1.86
4 UNI GY -58.92 0.34 1.59
LOAD 7 LIVELOAD (CLASS A MAX. SUPPORT MOMENT)
MEMBER LOAD
2 UNI GY -43.7 0.655 1.945
3 UNI GY -43.7 0.255 1.545
LOAD 8 LIVELOAD (CLASS 70 R MAX LOAD AT MID SPAN)
MEMBER LOAD
3 UNI GY -58.23 0.55 1.65
4 UNI GY -61.09 0.165 1.505
LOAD 9 LIVELOAD (CLASS A MAX LOAD AT MID SPAN)
MEMBER LOAD
3 UNI GY -41.35 0.555 1.645
4 UNI GY -46.11 0.035 1.375
LOAD COMBINATION 10
1 1.0 2 1.0 3 1.0 
LOAD COMBINATION 11
1 1.0 2 1.0 4 1.0 
LOAD COMBINATION 12
1 1.0 2 1.0 5 1.0 
LOAD COMBINATION 13
1 1.0 2 1.0 6 1.0 
LOAD COMBINATION 14
1 1.0 2 1.0 7 1.0 
LOAD COMBINATION 15
1 1.0 2 1.0 8 1.0 
LOAD COMBINATION 16
1 1.0 2 1.0 9 1.0 
PERFORM ANALYSIS
PRINT MEMBER FORCES ALL
PRINT MAXFORCE ENVELOPE ALL
LOAD LIST 10 TO 16
SECTION 0.001 0.999 ALL
PRINT MEMBER SECTION FORCES
SECTION 0.25 0.5 0.75 MEMB 2 TO 4
PRINT SECTION MAX DISPL
PRINT MEMBER SECTION FORCES
FINISH
